install:
	@echo "ESMF is not present in this no-ESMF build of GEOS-CHEM"