This is a HEMCO standalone run directory.

For more information on how to download and run the HEMCO standalone model,
please see:

  http://wiki.geos-chem.org/HEMCO_standalone

28 Sep 2020
GEOS-Chem Support Team
geos-chem-support@g.harvard.edu