install:
	@echo "MAPL Installation is not present in a non-ESMF install of GEOS-Chem"